/*--------------------------------*- C++ -*----------------------------------*\
| =========                 |                                                 |
| \\      /  F ield         | OpenFOAM: The Open Source CFD Toolbox           |
|  \\    /   O peration     | Version:  2412                                  |
|   \\  /    A nd           | Website:  www.openfoam.com                      |
|    \\/     M anipulation  |                                                 |
\*---------------------------------------------------------------------------*/
FoamFile
{
    version     2.0;
    format      binary;
    arch        "LSB;label=32;scalar=64";
    class       polyBoundaryMesh;
    location    "constant/polyMesh";
    object      boundary;
}
// * * * * * * * * * * * * * * * * * * * * * * * * * * * * * * * * * * * * * //

12
(
    frontAndBack
    {
        type            patch;
        nFaces          238;
        startFace       204707;
    }
    inlet
    {
        type            patch;
        nFaces          16;
        startFace       204945;
    }
    outlet
    {
        type            patch;
        nFaces          72;
        startFace       204961;
    }
    lowerWall
    {
        type            wall;
        inGroups        1(wall);
        nFaces          1878;
        startFace       205033;
    }
    upperWall
    {
        type            patch;
        nFaces          160;
        startFace       206911;
    }
    mainBody
    {
        type            wall;
        inGroups        2(mainBodyGroup wall);
        nFaces          0;
        startFace       207071;
    }
    FL
    {
        type            wall;
        inGroups        2(wheelGroup wall);
        nFaces          0;
        startFace       207071;
    }
    FR
    {
        type            wall;
        inGroups        2(wheelGroup wall);
        nFaces          0;
        startFace       207071;
    }
    RL
    {
        type            wall;
        inGroups        2(wheelGroup wall);
        nFaces          0;
        startFace       207071;
    }
    RR
    {
        type            wall;
        inGroups        2(wheelGroup wall);
        nFaces          0;
        startFace       207071;
    }
    procBoundary2to0
    {
        type            processor;
        inGroups        1(processor);
        nFaces          42;
        startFace       207071;
        matchTolerance  0.0001;
        transform       unknown;
        myProcNo        2;
        neighbProcNo    0;
    }
    procBoundary2to1
    {
        type            processor;
        inGroups        1(processor);
        nFaces          1384;
        startFace       207113;
        matchTolerance  0.0001;
        transform       unknown;
        myProcNo        2;
        neighbProcNo    1;
    }
)

// ************************************************************************* //
