/*--------------------------------*- C++ -*----------------------------------*\
| =========                 |                                                 |
| \\      /  F ield         | OpenFOAM: The Open Source CFD Toolbox           |
|  \\    /   O peration     | Version:  2412                                  |
|   \\  /    A nd           | Website:  www.openfoam.com                      |
|    \\/     M anipulation  |                                                 |
\*---------------------------------------------------------------------------*/
FoamFile
{
    version     2.0;
    format      binary;
    arch        "LSB;label=32;scalar=64";
    class       polyBoundaryMesh;
    location    "constant/polyMesh";
    object      boundary;
}
// * * * * * * * * * * * * * * * * * * * * * * * * * * * * * * * * * * * * * //

12
(
    frontAndBack
    {
        type            patch;
        nFaces          0;
        startFace       80093;
    }
    inlet
    {
        type            patch;
        nFaces          0;
        startFace       80093;
    }
    outlet
    {
        type            patch;
        nFaces          0;
        startFace       80093;
    }
    lowerWall
    {
        type            wall;
        inGroups        1(wall);
        nFaces          774;
        startFace       80093;
    }
    upperWall
    {
        type            patch;
        nFaces          0;
        startFace       80867;
    }
    mainBody
    {
        type            wall;
        inGroups        2(mainBodyGroup wall);
        nFaces          0;
        startFace       80867;
    }
    FL
    {
        type            wall;
        inGroups        2(wheelGroup wall);
        nFaces          0;
        startFace       80867;
    }
    FR
    {
        type            wall;
        inGroups        2(wheelGroup wall);
        nFaces          0;
        startFace       80867;
    }
    RL
    {
        type            wall;
        inGroups        2(wheelGroup wall);
        nFaces          0;
        startFace       80867;
    }
    RR
    {
        type            wall;
        inGroups        2(wheelGroup wall);
        nFaces          0;
        startFace       80867;
    }
    procBoundary2to0
    {
        type            processor;
        inGroups        1(processor);
        nFaces          1432;
        startFace       80867;
        matchTolerance  0.0001;
        transform       unknown;
        myProcNo        2;
        neighbProcNo    0;
    }
    procBoundary2to1
    {
        type            processor;
        inGroups        1(processor);
        nFaces          1496;
        startFace       82299;
        matchTolerance  0.0001;
        transform       unknown;
        myProcNo        2;
        neighbProcNo    1;
    }
)

// ************************************************************************* //
