/*--------------------------------*- C++ -*----------------------------------*\
| =========                 |                                                 |
| \\      /  F ield         | OpenFOAM: The Open Source CFD Toolbox           |
|  \\    /   O peration     | Version:  2412                                  |
|   \\  /    A nd           | Website:  www.openfoam.com                      |
|    \\/     M anipulation  |                                                 |
\*---------------------------------------------------------------------------*/
FoamFile
{
    version     2.0;
    format      binary;
    arch        "LSB;label=32;scalar=64";
    class       polyBoundaryMesh;
    location    "constant/polyMesh";
    object      boundary;
}
// * * * * * * * * * * * * * * * * * * * * * * * * * * * * * * * * * * * * * //

15
(
    frontAndBack
    {
        type            patch;
        nFaces          65;
        startFace       205249;
    }
    inlet
    {
        type            patch;
        nFaces          0;
        startFace       205314;
    }
    outlet
    {
        type            patch;
        nFaces          0;
        startFace       205314;
    }
    lowerWall
    {
        type            wall;
        inGroups        1(wall);
        nFaces          1683;
        startFace       205314;
    }
    upperWall
    {
        type            patch;
        nFaces          0;
        startFace       206997;
    }
    mainBody
    {
        type            wall;
        inGroups        2(mainBodyGroup wall);
        nFaces          0;
        startFace       206997;
    }
    FL
    {
        type            wall;
        inGroups        2(wheelGroup wall);
        nFaces          0;
        startFace       206997;
    }
    FR
    {
        type            wall;
        inGroups        2(wheelGroup wall);
        nFaces          0;
        startFace       206997;
    }
    RL
    {
        type            wall;
        inGroups        2(wheelGroup wall);
        nFaces          0;
        startFace       206997;
    }
    RR
    {
        type            wall;
        inGroups        2(wheelGroup wall);
        nFaces          0;
        startFace       206997;
    }
    procBoundary1to0
    {
        type            processor;
        inGroups        1(processor);
        nFaces          1241;
        startFace       206997;
        matchTolerance  0.0001;
        transform       unknown;
        myProcNo        1;
        neighbProcNo    0;
    }
    procBoundary1to2
    {
        type            processor;
        inGroups        1(processor);
        nFaces          1384;
        startFace       208238;
        matchTolerance  0.0001;
        transform       unknown;
        myProcNo        1;
        neighbProcNo    2;
    }
    procBoundary1to3
    {
        type            processor;
        inGroups        1(processor);
        nFaces          172;
        startFace       209622;
        matchTolerance  0.0001;
        transform       unknown;
        myProcNo        1;
        neighbProcNo    3;
    }
    procBoundary1to4
    {
        type            processor;
        inGroups        1(processor);
        nFaces          277;
        startFace       209794;
        matchTolerance  0.0001;
        transform       unknown;
        myProcNo        1;
        neighbProcNo    4;
    }
    procBoundary1to5
    {
        type            processor;
        inGroups        1(processor);
        nFaces          19;
        startFace       210071;
        matchTolerance  0.0001;
        transform       unknown;
        myProcNo        1;
        neighbProcNo    5;
    }
)

// ************************************************************************* //
