/*--------------------------------*- C++ -*----------------------------------*\
| =========                 |                                                 |
| \\      /  F ield         | OpenFOAM: The Open Source CFD Toolbox           |
|  \\    /   O peration     | Version:  2412                                  |
|   \\  /    A nd           | Website:  www.openfoam.com                      |
|    \\/     M anipulation  |                                                 |
\*---------------------------------------------------------------------------*/
FoamFile
{
    version     2.0;
    format      binary;
    arch        "LSB;label=32;scalar=64";
    class       polyBoundaryMesh;
    location    "constant/polyMesh";
    object      boundary;
}
// * * * * * * * * * * * * * * * * * * * * * * * * * * * * * * * * * * * * * //

15
(
    frontAndBack
    {
        type            patch;
        nFaces          8;
        startFace       79484;
    }
    inlet
    {
        type            patch;
        nFaces          0;
        startFace       79492;
    }
    outlet
    {
        type            patch;
        nFaces          0;
        startFace       79492;
    }
    lowerWall
    {
        type            wall;
        inGroups        1(wall);
        nFaces          693;
        startFace       79492;
    }
    upperWall
    {
        type            patch;
        nFaces          0;
        startFace       80185;
    }
    mainBody
    {
        type            wall;
        inGroups        2(mainBodyGroup wall);
        nFaces          0;
        startFace       80185;
    }
    FL
    {
        type            wall;
        inGroups        2(wheelGroup wall);
        nFaces          0;
        startFace       80185;
    }
    FR
    {
        type            wall;
        inGroups        2(wheelGroup wall);
        nFaces          0;
        startFace       80185;
    }
    RL
    {
        type            wall;
        inGroups        2(wheelGroup wall);
        nFaces          0;
        startFace       80185;
    }
    RR
    {
        type            wall;
        inGroups        2(wheelGroup wall);
        nFaces          0;
        startFace       80185;
    }
    procBoundary0to1
    {
        type            processor;
        inGroups        1(processor);
        nFaces          32;
        startFace       80185;
        matchTolerance  0.0001;
        transform       unknown;
        myProcNo        0;
        neighbProcNo    1;
    }
    procBoundary0to2
    {
        type            processor;
        inGroups        1(processor);
        nFaces          1432;
        startFace       80217;
        matchTolerance  0.0001;
        transform       unknown;
        myProcNo        0;
        neighbProcNo    2;
    }
    procBoundary0to3
    {
        type            processor;
        inGroups        1(processor);
        nFaces          1395;
        startFace       81649;
        matchTolerance  0.0001;
        transform       unknown;
        myProcNo        0;
        neighbProcNo    3;
    }
    procBoundary0to4
    {
        type            processor;
        inGroups        1(processor);
        nFaces          84;
        startFace       83044;
        matchTolerance  0.0001;
        transform       unknown;
        myProcNo        0;
        neighbProcNo    4;
    }
    procBoundary0to5
    {
        type            processor;
        inGroups        1(processor);
        nFaces          5;
        startFace       83128;
        matchTolerance  0.0001;
        transform       unknown;
        myProcNo        0;
        neighbProcNo    5;
    }
)

// ************************************************************************* //
