/*--------------------------------*- C++ -*----------------------------------*\
| =========                 |                                                 |
| \\      /  F ield         | OpenFOAM: The Open Source CFD Toolbox           |
|  \\    /   O peration     | Version:  2412                                  |
|   \\  /    A nd           | Website:  www.openfoam.com                      |
|    \\/     M anipulation  |                                                 |
\*---------------------------------------------------------------------------*/
FoamFile
{
    version     2.0;
    format      binary;
    arch        "LSB;label=32;scalar=64";
    class       polyBoundaryMesh;
    location    "constant/polyMesh";
    object      boundary;
}
// * * * * * * * * * * * * * * * * * * * * * * * * * * * * * * * * * * * * * //

15
(
    frontAndBack
    {
        type            patch;
        nFaces          79;
        startFace       206924;
    }
    inlet
    {
        type            patch;
        nFaces          56;
        startFace       207003;
    }
    outlet
    {
        type            patch;
        nFaces          0;
        startFace       207059;
    }
    lowerWall
    {
        type            wall;
        inGroups        1(wall);
        nFaces          1447;
        startFace       207059;
    }
    upperWall
    {
        type            patch;
        nFaces          0;
        startFace       208506;
    }
    mainBody
    {
        type            wall;
        inGroups        2(mainBodyGroup wall);
        nFaces          3736;
        startFace       208506;
    }
    FL
    {
        type            wall;
        inGroups        2(wheelGroup wall);
        nFaces          818;
        startFace       212242;
    }
    FR
    {
        type            wall;
        inGroups        2(wheelGroup wall);
        nFaces          2055;
        startFace       213060;
    }
    RL
    {
        type            wall;
        inGroups        2(wheelGroup wall);
        nFaces          0;
        startFace       215115;
    }
    RR
    {
        type            wall;
        inGroups        2(wheelGroup wall);
        nFaces          0;
        startFace       215115;
    }
    procBoundary0to1
    {
        type            processor;
        inGroups        1(processor);
        nFaces          1241;
        startFace       215115;
        matchTolerance  0.0001;
        transform       unknown;
        myProcNo        0;
        neighbProcNo    1;
    }
    procBoundary0to2
    {
        type            processor;
        inGroups        1(processor);
        nFaces          42;
        startFace       216356;
        matchTolerance  0.0001;
        transform       unknown;
        myProcNo        0;
        neighbProcNo    2;
    }
    procBoundary0to3
    {
        type            processor;
        inGroups        1(processor);
        nFaces          2057;
        startFace       216398;
        matchTolerance  0.0001;
        transform       unknown;
        myProcNo        0;
        neighbProcNo    3;
    }
    procBoundary0to4
    {
        type            processor;
        inGroups        1(processor);
        nFaces          39;
        startFace       218455;
        matchTolerance  0.0001;
        transform       unknown;
        myProcNo        0;
        neighbProcNo    4;
    }
    procBoundary0to5
    {
        type            processor;
        inGroups        1(processor);
        nFaces          452;
        startFace       218494;
        matchTolerance  0.0001;
        transform       unknown;
        myProcNo        0;
        neighbProcNo    5;
    }
)

// ************************************************************************* //
