/*--------------------------------*- C++ -*----------------------------------*\
| =========                 |                                                 |
| \\      /  F ield         | OpenFOAM: The Open Source CFD Toolbox           |
|  \\    /   O peration     | Version:  2412                                  |
|   \\  /    A nd           | Website:  www.openfoam.com                      |
|    \\/     M anipulation  |                                                 |
\*---------------------------------------------------------------------------*/
FoamFile
{
    version     2.0;
    format      binary;
    arch        "LSB;label=32;scalar=64";
    class       polyBoundaryMesh;
    location    "constant/polyMesh";
    object      boundary;
}
// * * * * * * * * * * * * * * * * * * * * * * * * * * * * * * * * * * * * * //

14
(
    frontAndBack
    {
        type            patch;
        nFaces          0;
        startFace       204185;
    }
    inlet
    {
        type            patch;
        nFaces          0;
        startFace       204185;
    }
    outlet
    {
        type            patch;
        nFaces          0;
        startFace       204185;
    }
    lowerWall
    {
        type            wall;
        inGroups        1(wall);
        nFaces          1125;
        startFace       204185;
    }
    upperWall
    {
        type            patch;
        nFaces          0;
        startFace       205310;
    }
    mainBody
    {
        type            wall;
        inGroups        2(mainBodyGroup wall);
        nFaces          7339;
        startFace       205310;
    }
    FL
    {
        type            wall;
        inGroups        2(wheelGroup wall);
        nFaces          2191;
        startFace       212649;
    }
    FR
    {
        type            wall;
        inGroups        2(wheelGroup wall);
        nFaces          938;
        startFace       214840;
    }
    RL
    {
        type            wall;
        inGroups        2(wheelGroup wall);
        nFaces          0;
        startFace       215778;
    }
    RR
    {
        type            wall;
        inGroups        2(wheelGroup wall);
        nFaces          0;
        startFace       215778;
    }
    procBoundary3to0
    {
        type            processor;
        inGroups        1(processor);
        nFaces          2057;
        startFace       215778;
        matchTolerance  0.0001;
        transform       unknown;
        myProcNo        3;
        neighbProcNo    0;
    }
    procBoundary3to1
    {
        type            processor;
        inGroups        1(processor);
        nFaces          172;
        startFace       217835;
        matchTolerance  0.0001;
        transform       unknown;
        myProcNo        3;
        neighbProcNo    1;
    }
    procBoundary3to4
    {
        type            processor;
        inGroups        1(processor);
        nFaces          429;
        startFace       218007;
        matchTolerance  0.0001;
        transform       unknown;
        myProcNo        3;
        neighbProcNo    4;
    }
    procBoundary3to5
    {
        type            processor;
        inGroups        1(processor);
        nFaces          977;
        startFace       218436;
        matchTolerance  0.0001;
        transform       unknown;
        myProcNo        3;
        neighbProcNo    5;
    }
)

// ************************************************************************* //
