/*--------------------------------*- C++ -*----------------------------------*\
| =========                 |                                                 |
| \\      /  F ield         | OpenFOAM: The Open Source CFD Toolbox           |
|  \\    /   O peration     | Version:  2412                                  |
|   \\  /    A nd           | Website:  www.openfoam.com                      |
|    \\/     M anipulation  |                                                 |
\*---------------------------------------------------------------------------*/
FoamFile
{
    version     2.0;
    format      binary;
    arch        "LSB;label=32;scalar=64";
    class       polyBoundaryMesh;
    location    "constant/polyMesh";
    object      boundary;
}
// * * * * * * * * * * * * * * * * * * * * * * * * * * * * * * * * * * * * * //

10
(
    frontAndBack
    {
        type            patch;
        nFaces          382;
        startFace       1236494;
    }
    inlet
    {
        type            patch;
        nFaces          72;
        startFace       1236876;
    }
    outlet
    {
        type            patch;
        nFaces          72;
        startFace       1236948;
    }
    lowerWall
    {
        type            wall;
        inGroups        1(wall);
        nFaces          8132;
        startFace       1237020;
    }
    upperWall
    {
        type            patch;
        nFaces          160;
        startFace       1245152;
    }
    mainBody
    {
        type            wall;
        inGroups        2(mainBodyGroup wall);
        nFaces          26544;
        startFace       1245312;
    }
    FL
    {
        type            wall;
        inGroups        2(wheelGroup wall);
        nFaces          3009;
        startFace       1271856;
    }
    FR
    {
        type            wall;
        inGroups        2(wheelGroup wall);
        nFaces          2993;
        startFace       1274865;
    }
    RL
    {
        type            wall;
        inGroups        2(wheelGroup wall);
        nFaces          3122;
        startFace       1277858;
    }
    RR
    {
        type            wall;
        inGroups        2(wheelGroup wall);
        nFaces          3092;
        startFace       1280980;
    }
)

// ************************************************************************* //
