/*--------------------------------*- C++ -*----------------------------------*\
| =========                 |                                                 |
| \\      /  F ield         | OpenFOAM: The Open Source CFD Toolbox           |
|  \\    /   O peration     | Version:  2412                                  |
|   \\  /    A nd           | Website:  www.openfoam.com                      |
|    \\/     M anipulation  |                                                 |
\*---------------------------------------------------------------------------*/
FoamFile
{
    version     2.0;
    format      binary;
    arch        "LSB;label=32;scalar=64";
    class       polyBoundaryMesh;
    location    "constant/polyMesh";
    object      boundary;
}
// * * * * * * * * * * * * * * * * * * * * * * * * * * * * * * * * * * * * * //

13
(
    frontAndBack
    {
        type            patch;
        nFaces          4;
        startFace       80146;
    }
    inlet
    {
        type            patch;
        nFaces          0;
        startFace       80150;
    }
    outlet
    {
        type            patch;
        nFaces          0;
        startFace       80150;
    }
    lowerWall
    {
        type            wall;
        inGroups        1(wall);
        nFaces          1612;
        startFace       80150;
    }
    upperWall
    {
        type            patch;
        nFaces          0;
        startFace       81762;
    }
    mainBody
    {
        type            wall;
        inGroups        2(mainBodyGroup wall);
        nFaces          71;
        startFace       81762;
    }
    FL
    {
        type            wall;
        inGroups        2(wheelGroup wall);
        nFaces          16;
        startFace       81833;
    }
    FR
    {
        type            wall;
        inGroups        2(wheelGroup wall);
        nFaces          16;
        startFace       81849;
    }
    RL
    {
        type            wall;
        inGroups        2(wheelGroup wall);
        nFaces          19;
        startFace       81865;
    }
    RR
    {
        type            wall;
        inGroups        2(wheelGroup wall);
        nFaces          19;
        startFace       81884;
    }
    procBoundary5to0
    {
        type            processor;
        inGroups        1(processor);
        nFaces          5;
        startFace       81903;
        matchTolerance  0.0001;
        transform       unknown;
        myProcNo        5;
        neighbProcNo    0;
    }
    procBoundary5to3
    {
        type            processor;
        inGroups        1(processor);
        nFaces          610;
        startFace       81908;
        matchTolerance  0.0001;
        transform       unknown;
        myProcNo        5;
        neighbProcNo    3;
    }
    procBoundary5to4
    {
        type            processor;
        inGroups        1(processor);
        nFaces          1509;
        startFace       82518;
        matchTolerance  0.0001;
        transform       unknown;
        myProcNo        5;
        neighbProcNo    4;
    }
)

// ************************************************************************* //
