/*--------------------------------*- C++ -*----------------------------------*\
| =========                 |                                                 |
| \\      /  F ield         | OpenFOAM: The Open Source CFD Toolbox           |
|  \\    /   O peration     | Version:  2412                                  |
|   \\  /    A nd           | Website:  www.openfoam.com                      |
|    \\/     M anipulation  |                                                 |
\*---------------------------------------------------------------------------*/
FoamFile
{
    version     2.0;
    format      binary;
    arch        "LSB;label=32;scalar=64";
    class       polyBoundaryMesh;
    location    "constant/polyMesh";
    object      boundary;
}
// * * * * * * * * * * * * * * * * * * * * * * * * * * * * * * * * * * * * * //

14
(
    frontAndBack
    {
        type            patch;
        nFaces          0;
        startFace       202032;
    }
    inlet
    {
        type            patch;
        nFaces          0;
        startFace       202032;
    }
    outlet
    {
        type            patch;
        nFaces          0;
        startFace       202032;
    }
    lowerWall
    {
        type            wall;
        inGroups        1(wall);
        nFaces          1042;
        startFace       202032;
    }
    upperWall
    {
        type            patch;
        nFaces          0;
        startFace       203074;
    }
    mainBody
    {
        type            wall;
        inGroups        2(mainBodyGroup wall);
        nFaces          8093;
        startFace       203074;
    }
    FL
    {
        type            wall;
        inGroups        2(wheelGroup wall);
        nFaces          0;
        startFace       211167;
    }
    FR
    {
        type            wall;
        inGroups        2(wheelGroup wall);
        nFaces          0;
        startFace       211167;
    }
    RL
    {
        type            wall;
        inGroups        2(wheelGroup wall);
        nFaces          0;
        startFace       211167;
    }
    RR
    {
        type            wall;
        inGroups        2(wheelGroup wall);
        nFaces          3092;
        startFace       211167;
    }
    procBoundary5to0
    {
        type            processor;
        inGroups        1(processor);
        nFaces          452;
        startFace       214259;
        matchTolerance  0.0001;
        transform       unknown;
        myProcNo        5;
        neighbProcNo    0;
    }
    procBoundary5to1
    {
        type            processor;
        inGroups        1(processor);
        nFaces          19;
        startFace       214711;
        matchTolerance  0.0001;
        transform       unknown;
        myProcNo        5;
        neighbProcNo    1;
    }
    procBoundary5to3
    {
        type            processor;
        inGroups        1(processor);
        nFaces          977;
        startFace       214730;
        matchTolerance  0.0001;
        transform       unknown;
        myProcNo        5;
        neighbProcNo    3;
    }
    procBoundary5to4
    {
        type            processor;
        inGroups        1(processor);
        nFaces          2125;
        startFace       215707;
        matchTolerance  0.0001;
        transform       unknown;
        myProcNo        5;
        neighbProcNo    4;
    }
)

// ************************************************************************* //
