/*--------------------------------*- C++ -*----------------------------------*\
| =========                 |                                                 |
| \\      /  F ield         | OpenFOAM: The Open Source CFD Toolbox           |
|  \\    /   O peration     | Version:  v2412                                 |
|   \\  /    A nd           | Website:  www.openfoam.com                      |
|    \\/     M anipulation  |                                                 |
\*---------------------------------------------------------------------------*/
FoamFile
{
    version     2.0;
    format      ascii;
    class       volVectorField;
    object      U;
}
// * * * * * * * * * * * * * * * * * * * * * * * * * * * * * * * * * * * * * //

#include        "include/initialConditions"

dimensions      [0 1 -1 0 0 0 0];

internalField   uniform $flowVelocity;

boundaryField
{
    #includeEtc "caseDicts/setConstraintTypes"

    #include "include/fixedInlet"

    outlet
    {
        type            inletOutlet;
        inletValue      uniform (0 0 0);
        value           $internalField;
    }

    lowerWall
    {
        type            fixedValue;
        value           $internalField;
    }

    mainBodyGroup
    {
        type            noSlip;
    }

    FL
    {
        type            rotatingWallVelocity;
        origin          (-0.02848173 -0.02549989 0.01399303);
        axis            (0 1 0);
        omega           100;
    }
    
    FR
    {
        type            rotatingWallVelocity;
        origin          (-0.02851836  0.02549866  0.01399303);
        axis            (0 1 0);
        omega           100;
    }
    
    RL
    {
        type            rotatingWallVelocity;
        origin          (0.09151802 -0.02349974  0.01399313);
        axis            (0 1 0);
        omega           100;
    }
    
    RR
    {
        type            rotatingWallVelocity;
        origin          (0.09148201 0.02349974 0.01399313);
        axis            (0 1 0);
        omega           100;
    }

    #include "include/frontBackUpperPatches"
}


// ************************************************************************* //
