/*--------------------------------*- C++ -*----------------------------------*\
| =========                 |                                                 |
| \\      /  F ield         | OpenFOAM: The Open Source CFD Toolbox           |
|  \\    /   O peration     | Version:  2412                                  |
|   \\  /    A nd           | Website:  www.openfoam.com                      |
|    \\/     M anipulation  |                                                 |
\*---------------------------------------------------------------------------*/
FoamFile
{
    version     2.0;
    format      binary;
    arch        "LSB;label=32;scalar=64";
    class       polyBoundaryMesh;
    location    "constant/polyMesh";
    object      boundary;
}
// * * * * * * * * * * * * * * * * * * * * * * * * * * * * * * * * * * * * * //

14
(
    frontAndBack
    {
        type            patch;
        nFaces          0;
        startFace       204183;
    }
    inlet
    {
        type            patch;
        nFaces          0;
        startFace       204183;
    }
    outlet
    {
        type            patch;
        nFaces          0;
        startFace       204183;
    }
    lowerWall
    {
        type            wall;
        inGroups        1(wall);
        nFaces          957;
        startFace       204183;
    }
    upperWall
    {
        type            patch;
        nFaces          0;
        startFace       205140;
    }
    mainBody
    {
        type            wall;
        inGroups        2(mainBodyGroup wall);
        nFaces          7376;
        startFace       205140;
    }
    FL
    {
        type            wall;
        inGroups        2(wheelGroup wall);
        nFaces          0;
        startFace       212516;
    }
    FR
    {
        type            wall;
        inGroups        2(wheelGroup wall);
        nFaces          0;
        startFace       212516;
    }
    RL
    {
        type            wall;
        inGroups        2(wheelGroup wall);
        nFaces          3122;
        startFace       212516;
    }
    RR
    {
        type            wall;
        inGroups        2(wheelGroup wall);
        nFaces          0;
        startFace       215638;
    }
    procBoundary4to0
    {
        type            processor;
        inGroups        1(processor);
        nFaces          39;
        startFace       215638;
        matchTolerance  0.0001;
        transform       unknown;
        myProcNo        4;
        neighbProcNo    0;
    }
    procBoundary4to1
    {
        type            processor;
        inGroups        1(processor);
        nFaces          277;
        startFace       215677;
        matchTolerance  0.0001;
        transform       unknown;
        myProcNo        4;
        neighbProcNo    1;
    }
    procBoundary4to3
    {
        type            processor;
        inGroups        1(processor);
        nFaces          429;
        startFace       215954;
        matchTolerance  0.0001;
        transform       unknown;
        myProcNo        4;
        neighbProcNo    3;
    }
    procBoundary4to5
    {
        type            processor;
        inGroups        1(processor);
        nFaces          2125;
        startFace       216383;
        matchTolerance  0.0001;
        transform       unknown;
        myProcNo        4;
        neighbProcNo    5;
    }
)

// ************************************************************************* //
